Circuit: * C:\users\shivansh\Downloads\Sanket\Dissertation\Dissertation\Final\GitHub\LTspice\LTspiceModel\ComplexDiodeModel.asc

Direct Newton iteration for .op point succeeded.
.step temp=10°C illu=200
.step temp=25°C illu=200
.step temp=40°C illu=200
.step temp=55°C illu=200
.step temp=70°C illu=200
.step temp=10°C illu=400
.step temp=25°C illu=400
.step temp=40°C illu=400
.step temp=55°C illu=400
.step temp=70°C illu=400
.step temp=10°C illu=600
.step temp=25°C illu=600
.step temp=40°C illu=600
.step temp=55°C illu=600
.step temp=70°C illu=600
.step temp=10°C illu=800
.step temp=25°C illu=800
.step temp=40°C illu=800
.step temp=55°C illu=800
.step temp=70°C illu=800
.step temp=10°C illu=1000
.step temp=25°C illu=1000
.step temp=40°C illu=1000
.step temp=55°C illu=1000
.step temp=70°C illu=1000

Date: Mon Jun 12 10:52:16 2023
Total elapsed time: 1.015 seconds.

tnom = 27
temp = 70
method = modified trap
totiter = 2105
traniter = 2097
tranpoints = 1045
accept = 1045
rejected = 0
matrix size = 4
fillins = 0
solver = Normal
Matrix Compiler1:       5 opcodes  0.2/[0.2]/0.2
Matrix Compiler2: off  [0.2]/0.2/0.2

