Circuit: * C:\users\shivansh\Downloads\Sanket\Dissertation\Dissertation\Final\GitHub\LTspice\LTspiceModel\SimpleDiodeModel.asc

Direct Newton iteration for .op point succeeded.
Ignoring empty pin current: Ix(u1:2)
Ignoring empty pin current: Ix(u1:2)

Date: Mon Jun 12 10:48:24 2023
Total elapsed time: 0.192 seconds.

tnom = 27
temp = 27
method = modified trap
totiter = 2104
traniter = 2096
tranpoints = 1045
accept = 1045
rejected = 0
matrix size = 8
fillins = 0
solver = Normal
Matrix Compiler1: 192 bytes object code size  0.3/0.2/[0.1]
Matrix Compiler2: off  [0.1]/0.2/0.2

